artifacts/measurements/out_measurements_parameter_topology_physical_preview/models_topology/case_topology_corrected_pt_323430370250.m
function mpc = case_topology_corrected_pt_323430370250
mpc.version = '2';
mpc.baseMVA = 100;

mpc.bus = [
    1 3 0 0 0 0 1 1.06 0 135 1 2 0 0 0 0 0 0;
    2 2 21.7 12.7 0 0 1 1.045 -4.83737272326 135 1 2 0 0 0 0 0 0;
    3 2 47.1 9.5 0 0 1 1.01 -16.5311101527 135 1 2 0 0 0 0 0 0;
    4 2 47.1 9.5 0 0 1 1.01 -9.7856997682 135 1 2 0 0 0 0 0 0;
    5 1 47.8 -3.9 0 0 1 1.01643428472 -11.3899633011 135 1 2 0 0 0 0 0 0;
    6 1 7.6 1.6 0 0 1 1.01819502824 -9.51059917966 135 1 2 0 0 0 0 0 0;
    7 2 11.2 7.5 0 0 1 1.07 -15.0764908472 0.208 1 2 0 0 0 0 0 0;
    8 1 0 0 0 0 1 1.06083014246 -14.3814261845 14 1 2 0 0 0 0 0 0;
    9 2 0 0 0 0 1 1.09 -14.3814261845 12 1 2 0 0 0 0 0 0;
    10 1 29.5 16.6 0 19 1 1.05507053269 -15.9310803565 0.208 1 2 0 0 0 0 0 0;
    11 1 9 5.8 0 0 1 1.05024016155 -16.0657220733 0.208 1 2 0 0 0 0 0 0;
    12 1 3.5 1.8 0 0 1 1.05649280204 -15.7031307294 0.208 1 2 0 0 0 0 0 0;
    13 1 6.1 1.6 0 0 1 1.05514552197 -15.9412471266 0.208 1 2 0 0 0 0 0 0;
    14 1 13.5 5.8 0 0 1 1.05022555198 -16.0310809342 0.208 1 2 0 0 0 0 0 0;
    15 1 14.9 5 0 0 1 1.03495784496 -16.9760512046 0.208 1 2 0 0 0 0 0 0;
];

mpc.gen = [
    1 234.084124224 -15.3825736627 0 0 1.06 1 1 1000000000 -1000000000 0 0 0 0 0 0 0 0 0 0 0 0 0 0 0 1;
    2 40 41.535261631 1000000000 -1000000000 1.045 nan 1 1000000000 -1000000000 0 0 0 0 0 0 0 0 0 0 0 0 0 0 0 0;
    3 0 25.9161416292 1000000000 -1000000000 1.01 nan 1 1000000000 -1000000000 0 0 0 0 0 0 0 0 0 0 0 0 0 0 0 0;
    4 0 2.57641303539 1000000000 -1000000000 1.01 nan 1 1000000000 -1000000000 0 0 0 0 0 0 0 0 0 0 0 0 0 0 0 0;
    7 0 13.3633013964 1000000000 -1000000000 1.07 nan 1 1000000000 -1000000000 0 0 0 0 0 0 0 0 0 0 0 0 0 0 0 0;
    9 0 18.0500394106 1000000000 -1000000000 1.09 nan 1 1000000000 -1000000000 0 0 0 0 0 0 0 0 0 0 0 0 0 0 0 0;
];

mpc.branch = [
    1 2 0.01938 0.05917 0.0528 100 0 0 0 0 1 -360 360 152.493423708 -19.3727115795 -148.43607436 25.9111479003 0 0 0 0 0;
    1 6 0.05403 0.22304 0.0492 100 0 0 0 0 1 -360 360 81.5907005162 3.99013791679 -78.3676246588 4.00057743679 0 0 0 0 0;
    2 4 0.04699 0.19797 0.0438 100 0 0 0 0 1 -360 360 48.1320212939 6.64596367453 -47.1 -6.92358689562 0 0 0 0 0;
    2 5 0.05811 0.17632 0.034 100 0 0 0 0 1 -360 360 68.2120182935 -3.47180833677 -65.7346898728 7.37585247971 0 0 0 0 0;
    2 6 0.05695 0.17388 0.0346 100 0 0 0 0 1 -360 360 50.3920347729 -0.250041449825 -49.0663379533 0.614934251727 0 0 0 0 0;
    3 5 0.06701 0.17103 0.0128 100 0 0 0 0 1 -360 360 -47.1 16.4161415697 48.7486528903 -13.5223482618 0 0 0 0 0;
    5 6 0.01335 0.04211 0 100 0 0 0 0 1 -360 360 -74.0825883305 20.5581601803 74.8463782179 -18.1489323031 0 0 0 0 0;
    5 8 0 0.20912 -0 100 0 0 0.978 0 1 -360 360 27.5140414671 -9.98233468274 -27.5140414671 11.6408823789 0 0 0 0 0;
    5 10 0 0.55618 -0 100 0 0 0.969 0 1 -360 360 15.7545838458 -0.529329715461 -15.7545838458 1.78538328503 0 0 0 0 0;
    6 7 0 0.25202 -0 100 0 0 0.932 0 1 -360 360 44.9875843942 11.9334206146 -44.9875843942 -7.35915543659 0 0 0 0 0;
    7 12 0.09498 0.1989 0 100 0 0 0 0 1 -360 360 7.90042017351 3.5276481121 -7.83831612868 -3.39759447432 0 0 0 0 0;
    7 13 0.12291 0.25581 0 100 0 0 0 0 1 -360 360 7.8566469423 2.48867308748 -7.78373144105 -2.33691558706 0 0 0 0 0;
    7 14 0.06615 0.13027 0 100 0 0 0 0 1 -360 360 18.0305172784 7.20613556352 -17.8126781794 -6.77714237507 0 0 0 0 0;
    8 9 0 0.17615 -0 100 0 0 0 0 1 -360 360 3.11981748792e-14 -17.5669963847 -3.10963447128e-14 18.0500395803 0 0 0 0 0;
    8 10 0 0.11001 -0 100 0 0 0 0 1 -360 360 27.5140414671 5.92611400576 -27.5140414671 -5.15175363047 0 0 0 0 0;
    10 11 0.03181 0.0845 0 100 0 0 0 0 1 -360 360 4.68888748171 4.26971203357 -4.67739534706 -4.23918435743 0 0 0 0 0;
    10 15 0.12711 0.27038 0 100 0 0 0 0 1 -360 360 9.07973783126 3.64696106214 -8.97041293755 -3.41441236603 0 0 0 0 0;
    11 12 0.08205 0.19207 0 100 0 0 0 0 1 -360 360 -4.32260465294 -1.56081564257 4.33831612868 1.59759447432 0 0 0 0 0;
    13 14 0.22092 0.19988 0 100 0 0 0 0 1 -360 360 1.68373144105 0.73691558706 -1.67702843727 -0.730850964593 0 0 0 0 0;
    14 15 0.17093 0.34802 0 100 0 0 0 0 1 -360 360 5.98970661671 1.70799333966 -5.92958706245 -1.58558763397 0 0 0 0 0;
];

